$# LS-DYNA Keyword file created by LS-PrePost 3.2 - 17Mar2012(08:47)
$# Created on Jun-10-2014 (09:44:53)
*KEYWORD  
*TITLE
$# title
LS-DYNA keyword deck by LS-PrePost
*CONTROL_CONTACT
$#  slsfac    rwpnal    islchk    shlthk    penopt    thkchg     orien    enmass
     0.000     0.000         1         0         0         0         1         0
$#  usrstr    usrfrc     nsbcs    interm     xpene     ssthk      ecdt   tiedprj
         0         0         0         0     0.000         0         0         0
$#   sfric     dfric       edc       vfc        th     th_sf    pen_sf
     0.000     0.000     0.000     0.000     0.000     0.000     0.000
$#  ignore    frceng   skiprwg    outseg   spotstp   spotdel   spothin
         0         0         0         0         0         0     0.000
$#    isym    nserod    rwgaps    rwgdth     rwksf      icov    swradf    ithoff
         0         0         0     0.000  1.000000         0     0.000         0
$#  shledg    pstiff    ithcnt    tdcnof     ftall    unused    shltrw
         0         0         0         0         0         0     0.000
*CONTROL_CPU
$#  cputim
     0.000
*CONTROL_DAMPING
$#  nrcyck     drtol    drfctr    drterm    tssfdr    irelal     edttl    idrflg
         0     0.000     0.000     0.000     0.000         0     0.000         0
*CONTROL_ENERGY
$#    hgen      rwen    slnten     rylen
         1         2         1         1
*CONTROL_OUTPUT
$#   npopt    neecho    nrefup    iaccop     opifs    ipnint    ikedit    iflush
         0         0         0         0     0.000         0         0         0
$#   iprtf    ierode     tet10    msgmax    ipcurv
         0         0         2        50         0
*CONTROL_SHELL
$#  wrpang     esort     irnxx    istupd    theory       bwc     miter      proj
 20.000000         1        -2         0        11         2         1         0
$# rotascl    intgrd    lamsht    cstyp6    tshell    nfail1    nfail4   psnfail
  1.000000         0         0         1         0         0         0         0
$# psstupd    irquad     cntco    itsflg    irquad
         0         0         0         0         2
*CONTROL_SPH
$$$$$$$$$$$$$$$$$$$$$$$$$$$$$$$   *CONTROL_SPH  $$$$$$$$$$$$$$$$$$$$$$$$$$$$$$$$
$#    ncbs     boxid        dt      idim    memory      form     start      maxv
         0         0     0.000         0         0         0     0.000     0.000
$#    cont     deriv                iact
         0         0         0         0
*CONTROL_STRUCTURED
*CONTROL_TERMINATION
$#  endtim    endcyc     dtmin    endeng    endmas
 1000.0000         0     0.000     0.000     0.000
*CONTROL_TIMESTEP
$#  dtinit    tssfac      isdo    tslimt     dt2ms      lctm     erode     ms1st
     0.000     0.000         0     0.000     0.000         0         0         0
$#  dt2msf   dt2mslc     imscl
     0.000         0         0
*DATABASE_GLSTAT
$#      dt    binary      lcur     ioopt
  0.010000         0         0         1
*DATABASE_MATSUM
$#      dt    binary      lcur     ioopt
 1.0000E-4         0         0         1
*DATABASE_SLEOUT
$#      dt    binary      lcur     ioopt
 1.0000E-4         0         0         1
*DATABASE_BINARY_D3PLOT
$#      dt      lcdt      beam     npltc    psetid
  0.100000         0         0         0         0
$#   ioopt
         0
*BOUNDARY_SPC_SET
$#    nsid       cid      dofx      dofy      dofz     dofrx     dofry     dofrz
         2         0         1         1         1         1         1         1
*SET_NODE_LIST_TITLE
TANJIRSPH
$#     sid       da1       da2       da3       da4    solver
         2     0.000     0.000     0.000     0.000MECH
$#    nid1      nid2      nid3      nid4      nid5      nid6      nid7      nid8
   1004486   1004487   1004488   1004489   1004490   1004491   1004492   1004493
   1004494   1004495   1004496   1004497   1004498   1004499   1004500   1004501
   1004502   1004503   1004504   1004505   1004506   1004507   1004508   1004509
   1004510   1004511   1004512   1004513   1004514   1004515   1004516   1004517
   1004518   1004519   1004520   1004521   1004522   1004523   1004524   1004525
   1004526   1004527   1004528   1004529   1004530   1004531   1004532   1004533
   1004534   1004535   1004536   1004537   1004538   1004539   1004540   1004541
   1004542   1004543   1004544   1004545   1004546   1004547   1004548   1004549
   1004550   1004551   1004552   1004553   1004554   1004555   1004556   1004557
   1004558   1004559   1004560   1004561   1004562   1004563   1004564   1004565
   1004566   1004567   1004568   1004569   1004570   1004571   1004572   1004573
   1004574   1004575   1004576   1004577   1004578   1004579   1004580   1004581
   1004582   1004583   1004584   1004585   1004586   1004587   1004588   1004589
   1004590   1004591   1004592   1004593   1004594   1004595   1004596   1004597
   1004598   1004599   1004600   1004601   1004602   1004603   1004604   1004605
   1004606   1004607   1004608   1004609   1004610   1004611   1004612   1004613
   1004614   1004615   1004616   1004617   1004618   1004619   1004620   1004621
   1004622   1004623   1004624   1004625   1004626   1004627   1004628   1004629
   1004630   1004631   1004632   1004633   1004634   1004635   1004636   1004637
   1004638   1004639   1004640   1004641   1004642   1004643   1004644   1004645
$ ... 205 like lines cut
*LOAD_BODY_Z
$#    lcid        sf    lciddr        xc        yc        zc       cid
         2  1.000000         0     0.000     0.000     0.000         0
*PART
$$$$$$$$$$$$$$$$$$$$$$$$$$$$$$$$ SPH PART    $$$$$$$$$$$$$$$$$$$$$$$$$$$$$$$$$$$
$# title
barre sph
$#     pid     secid       mid     eosid      hgid      grav    adpopt      tmid
       101       101         6         0         0         0         0         0
*SECTION_SPH
$$$$$$$$$$$$$$$$$$$$$$$$$$$$$$$$ SPH PART    $$$$$$$$$$$$$$$$$$$$$$$$$$$$$$$$$$$
$#   secid      cslh      hmin      hmax    sphini     death     start
       101  1.200000  1.000000  1.000000     0.0001.0000E+20     0.000
*MAT_GEOLOGIC_CAP_MODEL
$#     mid        ro      bulk         g     alpha     theta     gamma      beta
         6  0.002099 30.620001  8.230000  0.038580  0.030000  0.038580  9.000000
$#       r         d         w        x0         c         n
  2.000000  7.250000  0.180000     0.000     0.000     0.000
$#    plot     ftype       vec      toff
  1.000000  1.000000     0.000     0.000
*PART
$# title
SphNode
$#     pid     secid       mid     eosid      hgid      grav    adpopt      tmid
       103       103         5         0         0         0         0         0
*SECTION_SPH_TITLE
tanjir
$$$$$$$$$$$$$$$$$$$$$$$$$$$$$$$$ SPH PART    $$$$$$$$$$$$$$$$$$$$$$$$$$$$$$$$$$$
$#   secid      cslh      hmin      hmax    sphini     death     start
       103  1.200000  0.200000  2.000000  0.1000001.0000E+20     0.000
*MAT_PIECEWISE_LINEAR_PLASTICITY
$#     mid        ro         e        pr      sigy      etan      fail      tdel
         5  0.004000 2.0000E+5  0.330000  1.000000     0.000     0.000     0.000
$#       c         p      lcss      lcsr        vp
     0.000     0.000         1         0     0.000
$#    eps1      eps2      eps3      eps4      eps5      eps6      eps7      eps8
     0.000     0.000     0.000     0.000     0.000     0.000     0.000     0.000
$#     es1       es2       es3       es4       es5       es6       es7       es8
     0.000     0.000     0.000     0.000     0.000     0.000     0.000     0.000
*DEFINE_CURVE
$#    lcid      sidr       sfa       sfo      offa      offo    dattyp
         1         0  1.000000  1.000000     0.000     0.000         0
$#                a1                  o1
               0.000               0.000
            0.010000         1170.000000
            0.040000         1240.000000
*DEFINE_CURVE
$#    lcid      sidr       sfa       sfo      offa      offo    dattyp
         2         0  1.000000  1.000000     0.000     0.000         0
$#                a1                  o1
               0.000            0.009810
          100.000000            0.009810
        10000.000000            0.009810
*ELEMENT_SPH
$#   nid     pid            mass
 1000002     101   5.120001e-004
 1000003     101   5.120001e-004
 1000004     101   5.120001e-004
 1000005     101   5.120001e-004
 1000006     101   5.120001e-004
 1000007     101   5.120001e-004
 1000008     101   5.120001e-004
 1000009     101   5.120001e-004
 1000010     101   5.120001e-004
 1000011     101   5.120001e-004
 1000012     101   5.120001e-004
 1000013     101   5.120001e-004
 1000014     101   5.120001e-004
 1000015     101   5.120001e-004
 1000016     101   5.120001e-004
 1000017     101   5.120001e-004
 1000018     101   5.120001e-004
 1000019     101   5.120001e-004
 1000020     101   5.120001e-004
 1000021     101   5.120001e-004
$ ... 4275 like lines cut
*NODE
$#   nid               x               y               z      tc      rc
 1000002       -2.800000       11.400001        2.300000       0       0
 1000003       -2.000000       11.400001        2.300000       0       0
 1000004       -1.200000       11.400001        2.300000       0       0
 1000005       -0.400000       11.400001        2.300000       0       0
 1000006        0.400000       11.400002        2.300000       0       0
 1000007        1.200000       11.400001        2.300000       0       0
 1000008        2.000000       11.400002        2.300000       0       0
 1000009        2.800001       11.400001        2.300000       0       0
 1000010        3.600000       11.400001        2.300000       0       0
 1000011       -3.600000       12.200000        2.300000       0       0
 1000012       -2.800000       12.200000        2.300000       0       0
 1000013       -2.000000       12.200000        2.300000       0       0
 1000014       -1.200000       12.200000        2.300000       0       0
 1000015       -0.400000       12.200000        2.300000       0       0
 1000016        0.400000       12.200000        2.300000       0       0
 1000017        1.200000       12.200001        2.300000       0       0
 1000018        2.000000       12.200000        2.300000       0       0
 1000019        2.800001       12.200001        2.300000       0       0
 1000020        3.600000       12.200000        2.300000       0       0
 1000021       -3.600000       13.000000        2.300000       0       0
$ ... 4275 like lines cut
*END
