$# LS-DYNA Keyword file created by LS-PrePost 3.2 - 17Mar2012(08:47)
$# Created on Apr-24-2013 (14:37:30)
*KEYWORD  
*TITLE
$# title
LS-DYNA keyword deck by LS-PrePost
*CONTROL_CONTACT
$#  slsfac    rwpnal    islchk    shlthk    penopt    thkchg     orien    enmass
  0.100000     0.000         1         0         0         0         1         0
$#  usrstr    usrfrc     nsbcs    interm     xpene     ssthk      ecdt   tiedprj
         0         0         0         0  4.000000         0         0         0
$#   sfric     dfric       edc       vfc        th     th_sf    pen_sf
     0.000     0.000     0.000     0.000     0.000     0.000     0.000
$#  ignore    frceng   skiprwg    outseg   spotstp   spotdel   spothin
         0         0         0         0         0         0     0.000
$#    isym    nserod    rwgaps    rwgdth     rwksf      icov    swradf    ithoff
         0         0         0     0.000  1.000000         0     0.000         0
$#  shledg    pstiff    ithcnt    tdcnof     ftall    unused    shltrw
         0         0         0         0         0         0     0.000
*CONTROL_DAMPING
$#  nrcyck     drtol    drfctr    drterm    tssfdr    irelal     edttl    idrflg
         0     0.000     0.000     0.000     0.000         0     0.000         0
*CONTROL_ENERGY
$#    hgen      rwen    slnten     rylen
         1         2         1         1
*CONTROL_OUTPUT
$#   npopt    neecho    nrefup    iaccop     opifs    ipnint    ikedit    iflush
         0         0         0         0     0.000         0         0         0
$#   iprtf    ierode     tet10    msgmax    ipcurv
         0         0         2        50         0
*CONTROL_SPH
$#    ncbs     boxid        dt      idim    memory      form     start      maxv
         1         0     0.000         2       150         0     0.000     0.000
$#    cont     deriv                iact
         0         0         0         0
*CONTROL_TERMINATION
$#  endtim    endcyc     dtmin    endeng    endmas
 20.000000         0     0.000     0.000     0.000
*CONTROL_TIMESTEP
$#  dtinit    tssfac      isdo    tslimt     dt2ms      lctm     erode     ms1st
     0.000  0.500000         0     0.000     0.000         0         0         0
$#  dt2msf   dt2mslc     imscl
     0.000         0         0
*DATABASE_BINARY_D3PLOT
$#      dt      lcdt      beam     npltc    psetid
  0.400000         0         0         0         0
$#   ioopt
         0
*DATABASE_EXTENT_BINARY
$#   neiph     neips    maxint    strflg    sigflg    epsflg    rltflg    engflg
         0         0         3         0         1         1         1         1
$#  cmpflg    ieverp    beamip     dcomp      shge     stssz    n3thdt   ialemat
         0         0         0         1         1         1         2         1
$# nintsld   pkp_sen      sclp    unused     msscl     therm    intout    nodout
         0         0  1.000000         0         0         0STRESS    STRESS
*PART
$# title
SphNode
$#     pid     secid       mid     eosid      hgid      grav    adpopt      tmid
         1         1         1         0         0         0         0         0
*SECTION_SPH
$#   secid      cslh      hmin      hmax    sphini     death     start
         1  1.100000     0.000     0.000     0.000     0.000     0.000
*MAT_PLASTIC_KINEMATIC
$#     mid        ro         e        pr      sigy      etan      beta
         1  2.700000  0.165600  0.330000  0.002900     0.000     0.000
$#     src       srp        fs        vp
     0.000     0.000     0.000     0.000
*PART
$# title
SphNode
$#     pid     secid       mid     eosid      hgid      grav    adpopt      tmid
         2         2         1         0         0         0         0         0
*SECTION_SPH
$#   secid      cslh      hmin      hmax    sphini     death     start
         2  1.100000     0.000     0.000     0.000     0.000     0.000
*INITIAL_VELOCITY_NODE
$#     nid        vx        vy        vz       vxr       vyr       vzr      icid
         1  0.010000     0.000     0.000     0.000     0.000     0.000         0
         2  0.010000     0.000     0.000     0.000     0.000     0.000         0
         3  0.010000     0.000     0.000     0.000     0.000     0.000         0
         4  0.010000     0.000     0.000     0.000     0.000     0.000         0
         5  0.010000     0.000     0.000     0.000     0.000     0.000         0
         6  0.010000     0.000     0.000     0.000     0.000     0.000         0
         7  0.010000     0.000     0.000     0.000     0.000     0.000         0
         8  0.010000     0.000     0.000     0.000     0.000     0.000         0
         9  0.010000     0.000     0.000     0.000     0.000     0.000         0
        10  0.010000     0.000     0.000     0.000     0.000     0.000         0
        11  0.010000     0.000     0.000     0.000     0.000     0.000         0
        12  0.010000     0.000     0.000     0.000     0.000     0.000         0
        13  0.010000     0.000     0.000     0.000     0.000     0.000         0
        14  0.010000     0.000     0.000     0.000     0.000     0.000         0
        15  0.010000     0.000     0.000     0.000     0.000     0.000         0
        16  0.010000     0.000     0.000     0.000     0.000     0.000         0
        17  0.010000     0.000     0.000     0.000     0.000     0.000         0
        18  0.010000     0.000     0.000     0.000     0.000     0.000         0
        19  0.010000     0.000     0.000     0.000     0.000     0.000         0
        20  0.010000     0.000     0.000     0.000     0.000     0.000         0
$ ... 5380 like lines cut
*ELEMENT_SPH
$#   nid     pid            mass
       1       1        0.001000
       2       1        0.001000
       3       1        0.001000
       4       1        0.001000
       5       1        0.001000
       6       1        0.001000
       7       1        0.001000
       8       1        0.001000
       9       1        0.001000
      10       1        0.001000
      11       1        0.001000
      12       1        0.001000
      13       1        0.001000
      14       1        0.001000
      15       1        0.001000
      16       1        0.001000
      17       1        0.001000
      18       1        0.001000
      19       1        0.001000
      20       1        0.001000
$ ... 5380 like lines cut
*NODE
$#   nid               x               y               z      tc      rc
       1        0.016667        0.016667           0.000       0       0
       2        0.016667        0.050000           0.000       0       0
       3        0.016667        0.083333           0.000       0       0
       4        0.016667        0.116667           0.000       0       0
       5        0.016667        0.150000           0.000       0       0
       6        0.016667        0.183333           0.000       0       0
       7        0.016667        0.216667           0.000       0       0
       8        0.016667        0.250000           0.000       0       0
       9        0.016667        0.283333           0.000       0       0
      10        0.016667        0.316667           0.000       0       0
      11        0.016667        0.350000           0.000       0       0
      12        0.016667        0.383333           0.000       0       0
      13        0.016667        0.416667           0.000       0       0
      14        0.016667        0.450000           0.000       0       0
      15        0.016667        0.483333           0.000       0       0
      16        0.016667        0.516667           0.000       0       0
      17        0.016667        0.550000           0.000       0       0
      18        0.016667        0.583333           0.000       0       0
      19        0.016667        0.616667           0.000       0       0
      20        0.016667        0.650000           0.000       0       0
$ ... 5380 like lines cut
*END
