$# LS-DYNA Keyword file created by LS-PrePost 3.2 - 17Mar2012(08:47)
$# Created on May-14-2015 (11:04:54)
*KEYWORD  
*TITLE
$# title
LS-DYNA keyword deck by LS-PrePost
*CONTROL_CONTACT
$#  slsfac    rwpnal    islchk    shlthk    penopt    thkchg     orien    enmass
     0.000     0.000         1         0         0         0         1         0
$#  usrstr    usrfrc     nsbcs    interm     xpene     ssthk      ecdt   tiedprj
         0         0         0         0     0.000         0         0         0
$#   sfric     dfric       edc       vfc        th     th_sf    pen_sf
     0.000     0.000     0.000     0.000     0.000     0.000     0.000
$#  ignore    frceng   skiprwg    outseg   spotstp   spotdel   spothin
         0         0         0         0         0         0     0.000
$#    isym    nserod    rwgaps    rwgdth     rwksf      icov    swradf    ithoff
         0         0         0     0.000  1.000000         0     0.000         0
$#  shledg    pstiff    ithcnt    tdcnof     ftall    unused    shltrw
         0         0         0         0         0         0     0.000
*CONTROL_CPU
$#  cputim
     0.000
*CONTROL_DAMPING
$#  nrcyck     drtol    drfctr    drterm    tssfdr    irelal     edttl    idrflg
         0     0.000     0.000     0.000     0.000         0     0.000         0
*CONTROL_ENERGY
$#    hgen      rwen    slnten     rylen
         1         2         1         1
*CONTROL_OUTPUT
$#   npopt    neecho    nrefup    iaccop     opifs    ipnint    ikedit    iflush
         0         0         0         0     0.000         0         0         0
$#   iprtf    ierode     tet10    msgmax    ipcurv
         0         0         2        50         0
*CONTROL_SHELL
$#  wrpang     esort     irnxx    istupd    theory       bwc     miter      proj
 20.000000         1        -2         0        11         2         1         0
$# rotascl    intgrd    lamsht    cstyp6    tshell    nfail1    nfail4   psnfail
  1.000000         0         0         1         0         0         0         0
$# psstupd    irquad     cntco    itsflg    irquad
         0         0         0         0         2
*CONTROL_SPH
$#    ncbs     boxid        dt      idim    memory      form     start      maxv
         1         0     0.000         0         0         0     0.000     0.000
$#    cont     deriv                iact
         0         0         0         0
*CONTROL_STRUCTURED
*CONTROL_TERMINATION
$#  endtim    endcyc     dtmin    endeng    endmas
 1000.0000         0     0.000     0.000     0.000
*CONTROL_TIMESTEP
$#  dtinit    tssfac      isdo    tslimt     dt2ms      lctm     erode     ms1st
     0.000     0.000         0     0.000     0.000         0         0         0
$#  dt2msf   dt2mslc     imscl
     0.000         0         0
*DATABASE_GLSTAT
$#      dt    binary      lcur     ioopt
  0.010000         0         0         1
*DATABASE_MATSUM
$#      dt    binary      lcur     ioopt
 1.0000E-4         0         0         1
*DATABASE_SLEOUT
$#      dt    binary      lcur     ioopt
 1.0000E-4         0         0         1
*DATABASE_BINARY_D3PLOT
$#      dt      lcdt      beam     npltc    psetid
  0.100000         0         0         0         0
$#   ioopt
         0
*BOUNDARY_SPC_SET
$#    nsid       cid      dofx      dofy      dofz     dofrx     dofry     dofrz
         1         0         1         1         1         1         1         1
*SET_NODE_LIST_TITLE
ploca
$#     sid       da1       da2       da3       da4    solver
         1     0.000     0.000     0.000     0.000MECH
$#    nid1      nid2      nid3      nid4      nid5      nid6      nid7      nid8
       479       480       481       482       483       484       485       486
       487       488       489       490       491       492       493       494
       495       496       497       498       499       500       501       502
       503       504       505       506       507       508       509       510
       511       512       513       514       515       516       517       518
       519       520       521       522       523       524       525       526
       527       528       529       530       531       532       533       534
       535       536       537       538       539       540       541       542
       543       544       545       546       547       548       549       550
       551       552       553       554       555       556       557       558
       559       560       561       562       563       564       565       566
       567       568       569       570       571       572       573       574
       575       576       577       578       579       580       581       582
       583       584       585       586       587       588       589       590
       591       592       593       594       595       596       597       598
       599       600       601       602       603       604       605       606
       607       608       609       610       611       612       613       614
       615       616       617       618       619       620       621       622
       623       624       625       626       627       628       629       630
       631       632       633       634       635       636       637       638
$ ... 21 like lines cut
*LOAD_BODY_Z
$#    lcid        sf    lciddr        xc        yc        zc       cid
         1  1.000000         0     0.000     0.000     0.000         0
*PART
$# title
SphNode kupa
$#     pid     secid       mid     eosid      hgid      grav    adpopt      tmid
         1         1         2         0         0         0         0         0
*SECTION_SPH_TITLE
kupa
$#   secid      cslh      hmin      hmax    sphini     death     start
         1  1.200000  1.000000  1.000000  9.0000001.0000E+20     0.000
*MAT_GEOLOGIC_CAP_MODEL
$#     mid        ro      bulk         g     alpha     theta     gamma      beta
         2  0.002099 30.620001  8.230000  0.038580  0.030000  0.038580  9.000000
$#       r         d         w        x0         c         n
  2.000000  7.250000  0.180000     0.000     0.000     0.000
$#    plot     ftype       vec      toff
  1.000000  1.000000     0.000     0.000
*PART
$# title
SphNode ploca
$#     pid     secid       mid     eosid      hgid      grav    adpopt      tmid
         2         2         1         0         0         0         0         0
*SECTION_SPH_TITLE
ploca
$#   secid      cslh      hmin      hmax    sphini     death     start
         2  1.200000  1.000000  1.000000  9.0000001.0000E+20     0.000
*MAT_PIECEWISE_LINEAR_PLASTICITY
$#     mid        ro         e        pr      sigy      etan      fail      tdel
         1  0.004000 2.0000E+5  0.330000  1.000000     0.000     0.000     0.000
$#       c         p      lcss      lcsr        vp
     0.000     0.000         2         0     0.000
$#    eps1      eps2      eps3      eps4      eps5      eps6      eps7      eps8
     0.000     0.000     0.000     0.000     0.000     0.000     0.000     0.000
$#     es1       es2       es3       es4       es5       es6       es7       es8
     0.000     0.000     0.000     0.000     0.000     0.000     0.000     0.000
*DEFINE_CURVE_TITLE
kupa
$#    lcid      sidr       sfa       sfo      offa      offo    dattyp
         1         0  1.000000  1.000000     0.000     0.000         0
$#                a1                  o1
               0.000            0.009810
          100.000000            0.009810
        10000.000000            0.009810
*DEFINE_CURVE_TITLE
ploca
$#    lcid      sidr       sfa       sfo      offa      offo    dattyp
         2         0  1.000000  1.000000     0.000     0.000         0
$#                a1                  o1
               0.000               0.000
            0.010000         1170.000000
            0.040000         1240.000000
*ELEMENT_SPH
$#   nid     pid            mass
       1       1        0.817085
       2       1        0.817085
       3       1        0.817085
       4       1        0.817085
       5       1        0.817085
       6       1        0.817085
       7       1        0.817085
       8       1        0.817085
       9       1        0.817085
      10       1        0.817085
      11       1        0.817085
      12       1        0.817085
      13       1        0.817085
      14       1        0.817085
      15       1        0.817085
      16       1        0.817085
      17       1        0.817085
      18       1        0.817085
      19       1        0.817085
      20       1        0.817085
$ ... 782 like lines cut
*NODE
$#   nid               x               y               z      tc      rc
       1      -61.764706      -26.470592        2.500000       0       0
       2      -61.764706      -17.647064        2.500000       0       0
       3      -61.764706       -8.823535        2.500000       0       0
       4      -61.764706  -5.722046e-006        2.500000       0       0
       5      -61.764706        8.823524        2.500000       0       0
       6      -61.764706       17.647053        2.500000       0       0
       7      -61.764706       26.470581        2.500000       0       0
       8      -52.941177      -44.117649        2.500000       0       0
       9      -52.941177      -35.294121        2.500000       0       0
      10      -52.941177      -26.470592        2.500000       0       0
      11      -52.941177      -17.647064        2.500000       0       0
      12      -52.941177       -8.823535        2.500000       0       0
      13      -52.941177  -5.722046e-006        2.500000       0       0
      14      -52.941177        8.823524        2.500000       0       0
      15      -52.941177       17.647053        2.500000       0       0
      16      -52.941177       26.470581        2.500000       0       0
      17      -52.941177       35.294109        2.500000       0       0
      18      -52.941177       44.117638        2.500000       0       0
      19      -44.117649      -52.941177        2.500000       0       0
      20      -44.117649      -44.117649        2.500000       0       0
$ ... 782 like lines cut
*END
